200
12.59 12.59 12.59 
C    1.76587 3.01362 0.32589 
C    7.64969 5.96081 5.47813 
C    4.52335 9.07875 6.53602 
C    8.93028 7.25673 8.26482 
C    3.66745 11.17444 6.05234
C    7.13275 11.87025 1.24086
C    7.18162 11.34029 5.78377
C    11.08201 6.71510 4.29284
C    2.22066 0.98352 12.46902
C    5.34809 2.33202 3.26251 
C    6.12181 12.05723 3.06485
C    4.28911 9.52642 5.28576 
C    0.50853 9.92719 10.93555
C    2.92711 2.81941 9.23623 
C    10.39008 5.37521 6.58856
C    1.50159 4.91061 10.19787
C    3.08367 6.18855 11.78884
C    4.79105 3.83540 1.14968 
C    4.58157 4.01679 12.49858
C    1.77502 0.07480 0.88854 
C    0.64717 0.83313 10.79260
C    3.08315 1.73157 11.26595
C    9.01584 0.29927 11.66295
C    10.80777 12.38835 6.89129
C    1.79375 3.19717 2.98818 
C    1.64035 8.70401 2.69576 
C    0.12594 8.49215 2.10912 
C    9.36458 2.82352 4.94413 
C    11.57538 2.38340 7.63273
C    11.21127 5.54004 3.91997
C    3.46935 8.99536 8.81974 
C    10.55127 2.47662 8.53136
C    8.05292 10.48453 6.58848
C    8.80626 8.34688 7.63366 
C    4.98426 11.90842 9.44867
C    10.31506 10.37597 10.6795
C    1.85397 10.24474 10.82425
C    6.54826 5.29874 4.37737 
C    6.96815 0.95478 4.66885 
C    5.53181 3.62455 11.45430
C    10.68365 2.17459 4.05566
C    9.37377 2.88286 8.47382 
C    0.15899 4.53906 11.21298
C    8.57693 10.77798 2.70131
C    11.40080 12.47107 0.55083
C    11.72961 10.29446 6.12227
C    2.92817 11.33673 4.93893
C    4.56876 5.18107 6.84355 
C    3.68045 9.69784 4.19555 
C    8.73143 4.92462 7.48583 
C    5.64307 0.99119 3.57009 
C    9.64345 10.46886 8.11003
C    6.08589 2.73429 12.32638
C    4.32501 6.46378 9.35544 
C    6.35904 3.41428 3.34639 
C    7.35141 4.68932 11.44848
C    8.82742 5.29299 8.90382 
C    9.21363 5.83193 1.88791 
C    7.97802 1.15719 12.00198
C    11.17424 1.68710 10.71974
C    8.92491 3.29167 9.76814 
C    1.99864 12.31817 7.58743
C    7.15308 8.32048 10.64992
C    9.64916 8.73078 4.94486 
C    8.56764 3.75601 4.65637 
C    8.08334 6.35434 8.42318 
C    3.50715 5.60100 10.72707
C    5.72168 5.92091 7.68643 
C    0.83308 5.32266 3.00292 
C    4.50307 11.30144 2.80775
C    0.59843 9.12105 12.03058
C    10.82111 11.17054 8.45078
C    3.11624 5.80872 8.86516 
C    8.64668 5.08227 5.59427 
C    2.95081 5.71363 7.30972 
C    5.57243 8.99653 5.66105 
C    9.51957 9.61704 1.46885 
C    6.13319 7.39628 2.97603 
C    12.12035 1.35997 9.70479
C    7.30845 10.95559 10.76174
C    1.00527 11.35406 7.83623
C    11.16750 5.08614 7.76870
C    2.38257 11.14549 9.90297
C    2.10142 7.06488 9.36538 
C    6.27014 8.89098 11.31679
C    6.93520 5.90754 6.99223 
C    6.02020 4.92930 11.01550
C    8.00815 9.83448 1.68490 
C    3.85505 2.50558 3.13336 
C    4.56054 12.07055 7.96910
C    10.97507 0.82690 1.36773
C    2.25721 3.41642 1.49335 
C    3.32045 11.16550 7.42054
C    7.82863 8.47315 1.33716 
C    9.83998 2.35662 10.96488
C    4.06416 3.81660 6.10230 
C    4.24579 2.58701 9.63046 
C    7.63837 4.85640 1.78055 
C    2.76645 10.33240 8.66709
C    3.32802 11.94958 2.56652
C    7.39934 11.95667 4.35850
C    0.11711 8.84596 0.77562 
C    8.71225 9.66006 7.49762 
C    7.54896 10.78041 0.55854
C    10.23721 6.60085 6.95999
C    8.55461 0.91266 1.87279 
C    9.34556 7.24757 10.11554
C    10.25324 8.52195 2.06863
C    5.38703 9.30944 2.07575 
C    12.58432 4.19759 9.59631
C    11.14300 4.88739 2.90894
C    10.50901 1.05534 4.78551
C    6.48424 6.53797 3.63499 
C    1.50769 3.59304 4.71193 
C    3.79870 6.96218 12.58001
C    2.67832 1.73658 3.58305 
C    5.03477 11.99692 10.71356
C    4.31167 8.80213 7.81534 
C    11.95973 2.49962 6.32651
C    6.74057 3.82290 1.19364 
C    9.89175 2.98287 2.19226 
C    4.91967 8.57397 10.91963
C    8.16171 12.33819 2.32781
C    0.74131 7.81303 6.88064 
C    11.12813 9.30588 10.49790
C    11.37991 2.14646 1.70176
C    6.86329 10.96086 11.98594
C    2.73086 0.65036 2.11652 
C    2.39014 2.84187 11.55371
C    8.28849 4.39315 10.04722
C    2.48902 0.72416 6.24872 
C    5.64722 6.40734 8.99320 
C    6.20296 1.28008 12.41528
C    10.05196 4.30866 2.19574
C    2.93224 0.52832 8.31485 
C    11.58747 8.34472 6.25794
C    11.82134 11.71798 12.3558
C    5.56602 7.85170 1.74471 
C    11.68898 4.34830 4.84995
C    5.20268 1.96840 8.50203 
C    7.90856 0.93755 6.84710 
C    12.39289 3.81001 12.23147
C    1.75867 6.46902 10.77700
C    9.74054 0.38977 1.94069 
C    7.05411 1.74871 5.94224 
C    2.87437 10.31781 12.00719
C    12.06480 6.48701 12.29945
C    2.55645 9.23059 3.61194 
C    0.68714 3.77902 3.67513 
C    11.04409 2.93038 5.08391
C    12.29119 12.37912 11.0093
C    6.41963 10.20019 5.54015
C    7.53089 2.63900 3.17348 
C    5.47841 11.29900 12.05107
C    8.15536 2.24947 5.47278 
C    11.39692 4.66939 9.08385
C    0.07424 6.55049 1.39653 
C    4.68833 7.67344 12.23059
C    6.99649 4.51320 3.10717 
C    1.71259 2.13958 8.45764 
C    10.47485 12.09050 4.62018
C    3.57484 0.33173 10.68663
C    8.28137 2.51552 11.92759
C    2.53664 6.39559 6.20092 
C    8.51119 2.26144 2.48639 
C    1.38123 8.14386 8.73481 
C    4.13729 0.96162 8.20058 
C    5.93044 12.48662 0.48424
C    3.59910 3.57327 2.10409 
C    0.40705 7.39908 11.05660
C    12.41694 2.80143 0.71264
C    2.28462 11.33777 1.71645
C    1.14578 2.68583 6.04418 
C    8.98370 11.79805 11.08709
C    4.60252 10.06397 3.09125
C    4.32151 10.58639 11.84338
C    8.96591 11.39377 4.37500
C    1.95084 1.94364 6.79436 
C    0.17801 1.76877 8.39817 
C    12.35280 5.39533 2.18069
C    0.43907 8.73234 7.91575 
C    12.27184 8.70603 10.77603
C    0.04602 10.21460 7.67931
C    7.57413 3.45703 12.52377
C    2.30968 12.44380 5.25030
C    8.99300 7.27499 1.67052 
C    9.20972 9.95204 5.10409 
C    11.47942 8.50720 2.77098
C    10.38005 8.28183 6.91372
C    2.48629 6.23814 4.77972 
C    2.81811 9.82597 1.05914 
C    2.51201 3.94171 10.14838
C    2.24137 12.36198 10.44385
C    10.73562 7.90986 4.84286
C    10.20090 8.14360 10.03768
C    3.21038 4.14950 5.26669 
C    2.07310 5.54455 3.69670 
C    10.95019 11.37805 5.87692
C    4.38500 8.51299 9.70255 
C    8.81507 0.24444 7.42173 
