64
10.400000000 0.0 0.0 0.0 10.400000000 0.0 0.0 0.0 10.400000000 
U 10.27005 0.14554 10.10710 
U 4.80705 5.17076 10.11961 
U 2.18512 10.37648 3.11864 
U 7.96036 5.40837 2.01286 
U 5.52926 0.01192 4.89531 
U 10.25228 5.72861 5.36107 
U 7.80622 9.91707 7.53578 
U 3.11422 5.00891 7.27587 
U 10.04963 2.70680 2.30382 
U 4.92900 7.69077 2.60296 
U 2.78885 2.81046 5.02677 
U 8.45068 7.46851 4.69908 
U 5.11021 2.72874 8.26914 
U 0.24988 7.62819 8.40068 
U 7.69009 2.18350 10.26244 
U 2.66040 8.04838 0.13512 
U 2.67309 3.18243 0.10233 
U 7.73157 7.68828 10.29305 
U 5.16634 2.81359 2.56638 
U 0.05343 7.46181 2.35137 
U 7.71724 2.98887 5.07933 
U 1.52595 7.41581 4.61025 
U 0.69280 2.57639 8.09885 
U 5.57904 7.58802 7.85861 
U 1.97294 5.08832 2.93710 
U 7.93564 9.96056 2.92900 
U 5.47768 5.62016 5.50391 
U 10.08059 0.53410 5.38124
U 7.96226 4.92319 8.38545 
U 3.17490 9.67961 7.53066 
U 0.31218 5.58688 0.14638 
U 5.37364 0.08430 0.15614 
N 2.26632 2.18773 3.24319 
N 7.64964 7.80978 2.30783 
N 7.77685 0.15701 5.25525 
N 10.32749 9.06937 3.55620 
N 9.41753 1.06510 8.43541 
N 2.16762 0.54758 6.11518 
N 0.39624 0.85313 1.90413 
N 5.72910 8.64412 9.85284 
N 2.11956 7.27551 6.93055 
N 5.04051 0.20804 2.69129 
N 5.48576 4.88767 7.82486 
N 9.43513 8.93741 6.88435 
N 6.59988 4.37488 10.18701 
N 1.87093 9.73683 9.01429 
N 10.15728 5.08321 2.57705 
N 3.52969 8.66027 4.33667 
N 2.55036 7.16497 1.82625 
N 7.30272 3.60827 2.23970 
N 8.02205 4.70868 5.89125 
N 2.73730 2.22346 8.64946 
N 0.02266 5.09613 7.77491 
N 6.38750 0.85244 8.80781 
N 2.38694 5.60313 9.27224 
N 7.55961 10.21569 0.62313
N 5.91654 7.50917 5.57191 
N 8.81073 2.21832 3.82500 
N 7.91279 7.24306 8.22868 
N 0.62094 2.81417 10.00697
N 0.20655 8.34638 0.13811 
N 4.23306 4.66354 2.49889 
N 2.85566 5.04401 5.01124 
N 4.30031 2.16055 0.76177 
